Version 4
SHEET 1 880 680
WIRE 160 -48 48 -48
WIRE 352 -48 240 -48
WIRE -432 64 -640 64
WIRE -368 64 -432 64
WIRE -336 64 -368 64
WIRE -240 64 -256 64
WIRE -160 64 -240 64
WIRE -96 64 -160 64
WIRE -48 64 -96 64
WIRE 48 64 48 -48
WIRE 48 64 -48 64
WIRE 112 64 48 64
WIRE 352 64 352 -48
WIRE 352 64 288 64
WIRE 368 64 352 64
WIRE -48 80 -48 64
WIRE 368 112 368 64
WIRE -240 128 -240 64
WIRE 112 128 112 64
WIRE 288 128 288 64
WIRE -432 144 -432 64
WIRE -368 144 -368 64
WIRE -160 144 -160 64
WIRE -96 144 -96 64
WIRE -640 160 -640 64
WIRE -48 176 -48 144
WIRE 32 176 -48 176
WIRE -48 208 -48 176
WIRE 32 224 32 176
WIRE 288 256 288 208
WIRE 368 256 368 192
WIRE 368 256 288 256
WIRE -640 288 -640 240
WIRE -432 288 -432 208
WIRE -432 288 -640 288
WIRE -368 288 -368 208
WIRE -368 288 -432 288
WIRE -336 288 -368 288
WIRE -240 288 -240 208
WIRE -240 288 -256 288
WIRE -160 288 -160 208
WIRE -160 288 -240 288
WIRE -96 288 -96 208
WIRE -96 288 -160 288
WIRE -48 288 -48 272
WIRE -48 288 -96 288
WIRE 112 288 112 208
WIRE 112 288 -48 288
WIRE 112 320 112 288
FLAG 112 320 0
FLAG 32 224 0
SYMBOL ind2 96 224 M180
WINDOW 0 36 80 Left 2
WINDOW 3 36 40 Left 2
SYMATTR InstName L1
SYMATTR Value 2200µ
SYMATTR Type ind
SYMATTR SpiceLine Rser=100m
SYMBOL ind2 304 224 R180
WINDOW 0 36 80 Left 2
WINDOW 3 36 40 Left 2
SYMATTR InstName L2
SYMATTR Value 100µ
SYMATTR Type ind
SYMBOL voltage -640 144 R0
WINDOW 3 27 102 Left 2
WINDOW 123 24 44 Left 2
WINDOW 39 24 72 Left 2
SYMATTR Value SINE(0 170 60)
SYMATTR Value2 AC 1
SYMATTR SpiceLine Rser=0.0001
SYMATTR InstName V1
SYMBOL res 352 96 R0
SYMATTR InstName R1
SYMATTR Value 23
SYMBOL cap -64 80 R0
SYMATTR InstName C1
SYMATTR Value 0.001µ
SYMBOL cap -64 208 R0
SYMATTR InstName C2
SYMATTR Value 0.001µ
SYMBOL ind2 -240 48 R90
WINDOW 0 5 56 VBottom 2
WINDOW 3 32 56 VTop 2
SYMATTR InstName L3
SYMATTR Value 2MEG
SYMATTR SpiceLine Rser=22m
SYMATTR Type ind
SYMBOL ind2 -352 304 R270
WINDOW 0 32 56 VTop 2
WINDOW 3 5 56 VBottom 2
SYMATTR InstName L4
SYMATTR Value 2MEG
SYMATTR Type ind
SYMATTR SpiceLine Rser=22m
SYMBOL res -256 112 R0
SYMATTR InstName R2
SYMATTR Value 680k
SYMBOL res 256 -64 R90
WINDOW 0 0 56 VBottom 2
WINDOW 3 32 56 VTop 2
SYMATTR InstName RSHUNT
SYMATTR Value 1e12
SYMBOL cap -176 144 R0
SYMATTR InstName C4
SYMATTR Value 0.47µ
SYMBOL cap -112 144 R0
SYMATTR InstName C5
SYMATTR Value 0.1µ
SYMBOL cap -448 144 R0
SYMATTR InstName C3
SYMATTR Value 0.1µ
SYMBOL cap -384 144 R0
SYMATTR InstName C6
SYMATTR Value 0.47µ
TEXT 144 104 Left 2 !K1 L1 L2 1
TEXT -272 -16 Left 2 !.ac oct 10 1 100MEG
TEXT -272 16 Left 2 !;tran 0 2 0.001 0.0001
RECTANGLE Normal 336 304 64 16 2
