Version 4
SHEET 1 880 680
WIRE -336 -160 -368 -160
WIRE 416 -160 -256 -160
WIRE -368 -128 -368 -160
WIRE 224 -128 -160 -128
WIRE 624 -128 224 -128
WIRE -160 -48 -160 -128
WIRE -160 48 -160 32
WIRE -160 48 -256 48
WIRE -160 64 -160 48
WIRE 224 64 224 -128
WIRE 416 80 416 -160
WIRE 416 80 368 80
WIRE -256 128 -256 48
WIRE 416 128 416 80
WIRE 384 144 304 144
WIRE -160 160 -160 144
WIRE -128 160 -160 160
WIRE -16 160 -48 160
WIRE 16 160 -16 160
WIRE 128 160 96 160
WIRE 224 160 224 144
WIRE 224 160 192 160
WIRE 496 160 448 160
WIRE 624 160 624 -128
WIRE 624 160 576 160
WIRE -160 176 -160 160
WIRE 224 176 224 160
WIRE 384 176 336 176
WIRE 336 224 336 176
WIRE 416 224 416 192
WIRE 368 256 368 80
WIRE 416 256 368 256
WIRE -256 272 -256 192
WIRE -160 272 -160 256
WIRE -160 272 -256 272
WIRE 416 272 416 256
WIRE -160 288 -160 272
WIRE -16 288 -16 160
WIRE 304 288 304 144
WIRE 304 288 -16 288
WIRE 384 288 304 288
WIRE 496 304 448 304
WIRE 624 304 624 160
WIRE 624 304 576 304
WIRE 640 304 624 304
WIRE 736 304 704 304
WIRE 384 320 336 320
WIRE 736 320 736 304
WIRE 336 368 336 320
WIRE 416 368 416 336
WIRE 736 416 736 400
WIRE -368 480 -400 480
WIRE -160 480 -160 368
WIRE -160 480 -288 480
WIRE 224 480 224 256
WIRE 224 480 -160 480
WIRE -400 512 -400 480
FLAG -368 -128 0
FLAG -400 512 0
FLAG 416 368 0
FLAG 336 368 0
FLAG 416 224 0
FLAG 336 224 0
FLAG 736 416 0
SYMBOL voltage -240 -160 R90
WINDOW 0 -32 56 VBottom 2
WINDOW 3 32 56 VTop 2
WINDOW 123 0 0 Left 2
WINDOW 39 0 0 Left 2
SYMATTR InstName V1
SYMATTR Value 12
SYMBOL voltage -272 480 R90
WINDOW 0 -32 56 VBottom 2
WINDOW 3 88 56 VTop 2
WINDOW 123 60 56 VTop 2
WINDOW 39 0 0 Left 2
SYMATTR InstName V2
SYMATTR Value SINE(0 1 1000)
SYMATTR Value2 AC 1
SYMBOL res -176 272 R0
SYMATTR InstName R1
SYMATTR Value 1.8k
SYMBOL res -176 160 R0
SYMATTR InstName R2
SYMATTR Value 5k
SYMBOL res -176 48 R0
SYMATTR InstName R3
SYMATTR Value 5k
SYMBOL res -176 -64 R0
SYMATTR InstName R4
SYMATTR Value 1.8k
SYMBOL cap -272 128 R0
SYMATTR InstName C2
SYMATTR Value 100n
SYMBOL res 208 48 R0
SYMATTR InstName R5
SYMATTR Value 5k
SYMBOL res 208 160 R0
SYMATTR InstName R6
SYMATTR Value 5k
SYMBOL res -32 144 R90
WINDOW 0 0 56 VBottom 2
WINDOW 3 32 56 VTop 2
SYMATTR InstName R9
SYMATTR Value 22k
SYMBOL res 112 144 R90
WINDOW 0 0 56 VBottom 2
WINDOW 3 32 56 VTop 2
SYMATTR InstName R10
SYMATTR Value 9.1k
SYMBOL res 592 288 R90
WINDOW 0 0 56 VBottom 2
WINDOW 3 32 56 VTop 2
SYMATTR InstName R11
SYMATTR Value 100
SYMBOL res 592 144 R90
WINDOW 0 0 56 VBottom 2
WINDOW 3 32 56 VTop 2
SYMATTR InstName R12
SYMATTR Value 100
SYMBOL res 720 304 R0
SYMATTR InstName R13
SYMATTR Value 100
SYMBOL cap 704 288 R90
WINDOW 0 0 32 VBottom 2
WINDOW 3 32 32 VTop 2
SYMATTR InstName C1
SYMATTR Value 470µ
SYMBOL cap 192 144 R90
WINDOW 0 0 32 VBottom 2
WINDOW 3 32 32 VTop 2
SYMATTR InstName C3
SYMATTR Value 4.7n
SYMBOL Opamps\\LT1115 416 96 R0
SYMATTR InstName U1
SYMBOL Opamps\\LT1115 416 240 R0
SYMATTR InstName U2
TEXT -92 426 Left 2 !;ac oct 20 1 40k
TEXT -104 456 Left 2 !.tran 0 0.01 0 0.0001
