Version 4
SHEET 1 940 680
WIRE -144 -48 -240 -48
WIRE 304 -48 -64 -48
WIRE 400 16 240 16
WIRE 304 80 304 -48
WIRE 240 96 240 16
WIRE 272 96 240 96
WIRE 400 112 400 16
WIRE 400 112 336 112
WIRE 432 112 400 112
WIRE 656 112 496 112
WIRE -240 128 -240 -48
WIRE -208 128 -240 128
WIRE -96 128 -128 128
WIRE 32 128 -16 128
WIRE 96 128 32 128
WIRE 144 128 96 128
WIRE 240 128 208 128
WIRE 272 128 240 128
WIRE 656 144 656 112
WIRE 32 160 32 128
WIRE 96 160 96 128
WIRE 240 160 240 128
WIRE 32 256 32 224
WIRE 32 256 -32 256
WIRE 96 256 96 240
WIRE 96 256 32 256
WIRE 656 256 656 224
WIRE -32 272 -32 256
WIRE 240 288 240 240
WIRE -240 336 -240 128
WIRE -208 336 -240 336
WIRE 304 336 304 144
WIRE 304 336 -128 336
WIRE -240 384 -240 336
FLAG 240 288 0
FLAG -32 272 0
FLAG -240 384 0
FLAG 656 256 0
SYMBOL Opamps\\OP27 304 48 R0
SYMATTR InstName U1
SYMBOL cap 496 96 R90
WINDOW 0 0 32 VBottom 2
WINDOW 3 32 32 VTop 2
SYMATTR InstName C1
SYMATTR Value 47µ
SYMBOL res 224 144 R0
SYMATTR InstName R1
SYMATTR Value 100k
SYMBOL cap 208 112 R90
WINDOW 0 0 32 VBottom 2
WINDOW 3 32 32 VTop 2
SYMATTR InstName C2
SYMATTR Value 10µ
SYMBOL cap 48 224 R180
WINDOW 0 24 56 Left 2
WINDOW 3 24 8 Left 2
SYMATTR InstName C3
SYMATTR Value 220p
SYMBOL res 80 144 R0
SYMATTR InstName R2
SYMATTR Value 220k
SYMBOL res 0 112 R90
WINDOW 0 0 56 VBottom 2
WINDOW 3 32 56 VTop 2
SYMATTR InstName R3
SYMATTR Value 100
SYMBOL voltage -48 -48 R90
WINDOW 0 -32 56 VBottom 2
WINDOW 3 32 56 VTop 2
WINDOW 123 0 0 Left 2
WINDOW 39 0 0 Left 2
SYMATTR InstName V1
SYMATTR Value 15
SYMBOL voltage -112 128 R90
WINDOW 0 -32 56 VBottom 2
WINDOW 3 32 56 VTop 2
WINDOW 123 60 56 VTop 2
WINDOW 39 0 0 Left 2
SYMATTR InstName V2
SYMATTR Value SINE(0 1 120)
SYMATTR Value2 AC 1
SYMBOL voltage -112 336 R90
WINDOW 0 -32 56 VBottom 2
WINDOW 3 32 56 VTop 2
WINDOW 123 0 0 Left 2
WINDOW 39 0 0 Left 2
SYMATTR InstName V3
SYMATTR Value -15
SYMBOL res 640 128 R0
SYMATTR InstName R5
SYMATTR Value 50k
TEXT -48 8 Left 2 !.ac oct 20 0.1 1MEG
TEXT -48 40 Left 2 !;tran 0 0.05 0 0.0001
TEXT -64 376 Left 2 ;Best, Small Signal Audio, pg341
TEXT 344 312 Left 2 !.STEP param Ro list 25k 50k 100k
