Version 4
SHEET 1 880 680
WIRE -304 -16 -336 -16
WIRE -32 -16 -224 -16
WIRE 16 -16 -32 -16
WIRE 160 -16 96 -16
WIRE 256 -16 160 -16
WIRE -336 16 -336 -16
WIRE -32 16 -32 -16
WIRE 256 16 256 -16
WIRE 160 96 160 -16
WIRE 256 128 256 96
WIRE -32 160 -32 96
WIRE 0 160 -32 160
WIRE 112 160 80 160
WIRE -384 240 -416 240
WIRE -272 240 -304 240
WIRE -160 240 -192 240
WIRE -128 240 -160 240
WIRE -32 240 -32 160
WIRE -32 240 -64 240
WIRE 160 240 160 192
WIRE -160 256 -160 240
WIRE -416 272 -416 240
WIRE -160 336 -160 320
FLAG -336 16 0
FLAG 256 128 0
FLAG -416 272 0
FLAG -160 336 0
FLAG 160 240 0
SYMBOL voltage -208 -16 R90
WINDOW 0 -32 56 VBottom 2
WINDOW 3 32 56 VTop 2
WINDOW 123 0 0 Left 2
WINDOW 39 0 0 Left 2
SYMATTR InstName V1
SYMATTR Value SINE(0 2 60)
SYMBOL voltage -288 240 R90
WINDOW 0 -32 56 VBottom 2
WINDOW 3 32 56 VTop 2
WINDOW 123 0 0 Left 2
WINDOW 39 0 0 Left 2
SYMATTR InstName V2
SYMATTR Value PULSE(0 15 0.5 0.001 0.001 0.5)
SYMBOL cap -176 256 R0
SYMATTR InstName C1
SYMATTR Value 47µ
SYMBOL res -176 224 R90
WINDOW 0 0 56 VBottom 2
WINDOW 3 32 56 VTop 2
SYMATTR InstName R2
SYMATTR Value 2k
SYMBOL diode -128 256 R270
WINDOW 0 32 32 VTop 2
WINDOW 3 0 32 VBottom 2
SYMATTR InstName D1
SYMBOL res 96 144 R90
WINDOW 0 0 56 VBottom 2
WINDOW 3 32 56 VTop 2
SYMATTR InstName R3
SYMATTR Value 100k
SYMBOL res -48 0 R0
SYMATTR InstName R4
SYMATTR Value 1MEG
SYMBOL res 240 0 R0
SYMATTR InstName R5
SYMATTR Value 50k
SYMBOL pjf 112 96 R0
SYMATTR InstName J1
SYMBOL res 112 -32 R90
WINDOW 0 0 56 VBottom 2
WINDOW 3 32 56 VTop 2
SYMATTR InstName R1
SYMATTR Value 50k
TEXT -338 112 Left 2 !.tran 0 1.5 0 0.001
