Version 4
SHEET 1 880 680
WIRE -128 -352 -800 -352
WIRE -128 -272 -128 -352
WIRE 208 -272 -128 -272
WIRE -800 -240 -800 -352
WIRE -768 -240 -800 -240
WIRE -512 -240 -544 -240
WIRE -928 -224 -960 -224
WIRE -800 -224 -800 -240
WIRE -800 -224 -848 -224
WIRE -656 -160 -656 -176
WIRE -656 -160 -688 -160
WIRE -688 -128 -688 -160
WIRE -656 -128 -688 -128
WIRE -560 -128 -592 -128
WIRE -512 -128 -512 -240
WIRE -512 -128 -560 -128
WIRE -560 -112 -560 -128
WIRE -96 -96 -192 -96
WIRE 16 -96 -16 -96
WIRE -688 -80 -688 -128
WIRE 240 -80 144 -80
WIRE 368 -80 320 -80
WIRE -128 -32 -128 -272
WIRE -960 -16 -960 -224
WIRE -928 -16 -960 -16
WIRE -800 -16 -848 -16
WIRE -672 -16 -736 -16
WIRE -560 -16 -560 -32
WIRE -560 -16 -672 -16
WIRE -512 -16 -560 -16
WIRE -384 -16 -416 -16
WIRE -304 -16 -320 -16
WIRE -288 -16 -304 -16
WIRE -192 -16 -192 -96
WIRE -192 -16 -208 -16
WIRE -160 -16 -192 -16
WIRE 208 -16 208 -272
WIRE -672 0 -672 -16
WIRE -560 0 -560 -16
WIRE 16 0 16 -96
WIRE 16 0 -96 0
WIRE 48 0 16 0
WIRE 144 0 144 -80
WIRE 144 0 128 0
WIRE 176 0 144 0
WIRE -960 16 -960 -16
WIRE -160 16 -192 16
WIRE 368 16 368 -80
WIRE 368 16 240 16
WIRE -304 32 -304 -16
WIRE 176 32 128 32
WIRE -448 48 -448 32
WIRE -192 48 -192 16
WIRE 368 48 368 16
WIRE 128 64 128 32
WIRE -672 96 -672 80
WIRE -896 144 -928 144
WIRE -784 144 -816 144
WIRE -672 144 -704 144
WIRE -640 144 -672 144
WIRE -560 144 -560 80
WIRE -560 144 -576 144
WIRE -448 144 -448 128
WIRE -448 144 -560 144
WIRE -304 144 -304 112
WIRE -272 144 -304 144
WIRE -128 144 -128 32
WIRE -128 144 -192 144
WIRE 208 144 208 48
WIRE 208 144 -128 144
WIRE -672 160 -672 144
WIRE 368 160 368 128
WIRE -928 176 -928 144
WIRE -304 208 -304 144
WIRE -672 240 -672 224
FLAG -960 16 0
FLAG -928 176 0
FLAG -672 240 0
FLAG -688 -80 0
FLAG 368 160 0
FLAG -192 48 0
FLAG -304 208 0
FLAG 128 64 0
FLAG -672 96 0
SYMBOL voltage -832 -16 R90
WINDOW 0 -32 56 VBottom 2
WINDOW 3 32 56 VTop 2
WINDOW 123 -32 17 VBottom 2
WINDOW 39 0 0 Left 2
SYMATTR InstName V1
SYMATTR Value SINE(0 2 80)
SYMATTR Value2 AC 1
SYMBOL voltage -800 144 R90
WINDOW 0 -32 56 VBottom 2
WINDOW 3 32 56 VTop 2
WINDOW 123 0 0 Left 2
WINDOW 39 0 0 Left 2
SYMATTR InstName V2
SYMATTR Value PULSE(0 15 0.1 0.001 0.001 0.3)
SYMBOL cap -688 160 R0
SYMATTR InstName C1
SYMATTR Value 47µ
SYMBOL res -688 128 R90
WINDOW 0 0 56 VBottom 2
WINDOW 3 32 56 VTop 2
SYMATTR InstName R2
SYMATTR Value 1k
SYMBOL diode -640 160 R270
WINDOW 0 32 32 VTop 2
WINDOW 3 0 32 VBottom 2
SYMATTR InstName D1
SYMBOL res -464 32 R0
WINDOW 0 35 40 Left 2
SYMATTR InstName R3
SYMATTR Value 100k
SYMBOL res -576 -16 R0
SYMATTR InstName R4
SYMATTR Value 1MEG
SYMBOL pjf -512 32 R270
SYMATTR InstName J1
SYMBOL cap -736 -32 R90
WINDOW 0 0 32 VBottom 2
WINDOW 3 32 32 VTop 2
SYMATTR InstName C3
SYMATTR Value 10µ
SYMBOL voltage -832 -224 R90
WINDOW 0 -32 56 VBottom 2
WINDOW 3 32 56 VTop 2
WINDOW 123 0 0 Left 2
WINDOW 39 0 0 Left 2
SYMATTR InstName V3
SYMATTR Value 15
SYMBOL cap -592 -144 R90
WINDOW 0 0 32 VBottom 2
WINDOW 3 32 32 VTop 2
SYMATTR InstName C4
SYMATTR Value 10µ
SYMBOL res -544 -16 R180
WINDOW 0 36 76 Left 2
WINDOW 3 36 40 Left 2
SYMATTR InstName R7
SYMATTR Value {Rb}
SYMBOL res -192 -32 R90
WINDOW 0 0 56 VBottom 2
WINDOW 3 32 56 VTop 2
SYMATTR InstName R9
SYMATTR Value 20k
SYMBOL res 352 32 R0
SYMATTR InstName R5
SYMATTR Value 25k
SYMBOL res 0 -112 R90
WINDOW 0 0 56 VBottom 2
WINDOW 3 32 56 VTop 2
SYMATTR InstName R10
SYMATTR Value 25k
SYMBOL Opamps\\OP07 -128 -64 R0
SYMATTR InstName U1
SYMBOL cap -320 -32 R90
WINDOW 0 0 32 VBottom 2
WINDOW 3 32 32 VTop 2
SYMATTR InstName C5
SYMATTR Value 10µ
SYMBOL voltage -176 144 R90
WINDOW 123 0 0 Left 2
WINDOW 39 0 0 Left 2
SYMATTR InstName V4
SYMATTR Value -15
SYMBOL Opamps\\OP07 208 -48 R0
SYMATTR InstName U2
SYMBOL res 144 -16 R90
WINDOW 0 0 56 VBottom 2
WINDOW 3 32 56 VTop 2
SYMATTR InstName R8
SYMATTR Value 20k
SYMBOL res 336 -96 R90
WINDOW 0 0 56 VBottom 2
WINDOW 3 32 56 VTop 2
SYMATTR InstName R11
SYMATTR Value 20k
SYMBOL res -688 -16 R0
SYMATTR InstName R12
SYMATTR Value {Rbn}
SYMBOL res -320 16 R0
SYMATTR InstName R13
SYMATTR Value 200k
SYMBOL References\\LT6654-3.3 -656 -240 R0
SYMATTR InstName U3
TEXT -448 -200 Left 2 !.tran 0 0.6 0 0.0001
TEXT -448 -232 Left 2 !;ac oct 16 0.1 100k
TEXT 232 -320 Left 2 !.STEP param Rb list 50k 100k 100MEG
TEXT 232 -272 Left 2 !.STEP param Rbn list 200k 200k 0.001
