Version 4
SHEET 1 880 680
WIRE -352 -448 -800 -448
WIRE -128 -448 -352 -448
WIRE -80 -416 -192 -416
WIRE 16 -416 -16 -416
WIRE -192 -352 -192 -416
WIRE -80 -352 -192 -352
WIRE 16 -352 16 -416
WIRE 16 -352 0 -352
WIRE -800 -336 -800 -448
WIRE -768 -336 -800 -336
WIRE -480 -336 -544 -336
WIRE -128 -320 -128 -448
WIRE -288 -304 -304 -304
WIRE -192 -304 -192 -352
WIRE -192 -304 -208 -304
WIRE -160 -304 -192 -304
WIRE 16 -288 16 -352
WIRE 16 -288 -96 -288
WIRE 144 -288 16 -288
WIRE -160 -272 -208 -272
WIRE 144 -256 144 -288
WIRE -208 -240 -208 -272
WIRE -928 -224 -960 -224
WIRE -800 -224 -800 -336
WIRE -800 -224 -848 -224
WIRE -128 -192 -128 -256
WIRE 80 -192 -128 -192
WIRE -656 -160 -656 -272
WIRE -624 -160 -656 -160
WIRE -528 -160 -560 -160
WIRE -480 -160 -480 -336
WIRE -480 -160 -528 -160
WIRE -528 -144 -528 -160
WIRE -160 -144 -192 -144
WIRE 16 -144 -96 -144
WIRE 144 -144 144 -176
WIRE -656 -112 -656 -160
WIRE -192 -96 -192 -144
WIRE -80 -96 -192 -96
WIRE 16 -96 16 -144
WIRE 16 -96 0 -96
WIRE -352 -80 -352 -448
WIRE -128 -80 -352 -80
WIRE -128 -32 -128 -80
WIRE -960 -16 -960 -224
WIRE -928 -16 -960 -16
WIRE -800 -16 -848 -16
WIRE -672 -16 -736 -16
WIRE -560 -16 -672 -16
WIRE -528 -16 -528 -64
WIRE -528 -16 -560 -16
WIRE -512 -16 -528 -16
WIRE -384 -16 -416 -16
WIRE -304 -16 -304 -304
WIRE -304 -16 -320 -16
WIRE -288 -16 -304 -16
WIRE -192 -16 -192 -96
WIRE -192 -16 -208 -16
WIRE -160 -16 -192 -16
WIRE -672 0 -672 -16
WIRE -560 0 -560 -16
WIRE 16 0 16 -96
WIRE 16 0 -96 0
WIRE 144 0 16 0
WIRE -960 16 -960 -16
WIRE -160 16 -192 16
WIRE -304 32 -304 -16
WIRE 144 32 144 0
WIRE -448 48 -448 32
WIRE -192 48 -192 16
WIRE -672 96 -672 80
WIRE -896 144 -928 144
WIRE -784 144 -816 144
WIRE -672 144 -704 144
WIRE -640 144 -672 144
WIRE -560 144 -560 80
WIRE -560 144 -576 144
WIRE -448 144 -448 128
WIRE -448 144 -560 144
WIRE -304 144 -304 112
WIRE -272 144 -304 144
WIRE -128 144 -128 32
WIRE -128 144 -192 144
WIRE 80 144 80 -192
WIRE 80 144 -128 144
WIRE 144 144 144 112
WIRE -672 160 -672 144
WIRE -928 176 -928 144
WIRE -304 208 -304 144
WIRE -672 240 -672 224
FLAG -960 16 0
FLAG -928 176 0
FLAG -672 240 0
FLAG -656 -112 0
FLAG 144 144 0
FLAG -192 48 0
FLAG -304 208 0
FLAG -208 -240 0
FLAG -672 96 0
FLAG 144 -144 0
SYMBOL voltage -832 -16 R90
WINDOW 0 -32 56 VBottom 2
WINDOW 3 32 56 VTop 2
WINDOW 123 -32 17 VBottom 2
WINDOW 39 0 0 Left 2
SYMATTR InstName V1
SYMATTR Value SINE(0 2 80)
SYMATTR Value2 AC 1
SYMBOL voltage -800 144 R90
WINDOW 0 -32 56 VBottom 2
WINDOW 3 32 56 VTop 2
WINDOW 123 0 0 Left 2
WINDOW 39 0 0 Left 2
SYMATTR InstName V2
SYMATTR Value PULSE(0 15 0.1 0.001 0.001 0.3)
SYMBOL cap -688 160 R0
SYMATTR InstName C1
SYMATTR Value 47µ
SYMBOL res -688 128 R90
WINDOW 0 0 56 VBottom 2
WINDOW 3 32 56 VTop 2
SYMATTR InstName R2
SYMATTR Value 1k
SYMBOL diode -640 160 R270
WINDOW 0 32 32 VTop 2
WINDOW 3 0 32 VBottom 2
SYMATTR InstName D1
SYMBOL res -464 32 R0
WINDOW 0 35 40 Left 2
SYMATTR InstName R3
SYMATTR Value 100k
SYMBOL res -576 -16 R0
SYMATTR InstName R4
SYMATTR Value 1MEG
SYMBOL pjf -512 32 R270
SYMATTR InstName J1
SYMBOL cap -736 -32 R90
WINDOW 0 0 32 VBottom 2
WINDOW 3 32 32 VTop 2
SYMATTR InstName C3
SYMATTR Value 10µ
SYMBOL voltage -832 -224 R90
WINDOW 0 -32 56 VBottom 2
WINDOW 3 32 56 VTop 2
WINDOW 123 0 0 Left 2
WINDOW 39 0 0 Left 2
SYMATTR InstName V3
SYMATTR Value 15
SYMBOL cap -560 -176 R90
WINDOW 0 0 32 VBottom 2
WINDOW 3 32 32 VTop 2
SYMATTR InstName C4
SYMATTR Value 10µ
SYMBOL res -512 -48 R180
WINDOW 0 36 76 Left 2
WINDOW 3 36 40 Left 2
SYMATTR InstName R7
SYMATTR Value 50k
SYMBOL res -192 -32 R90
WINDOW 0 0 56 VBottom 2
WINDOW 3 32 56 VTop 2
SYMATTR InstName R9
SYMATTR Value 25k
SYMBOL res 128 16 R0
SYMATTR InstName R5
SYMATTR Value 50k
SYMBOL Opamps\\OP07 -128 -64 R0
SYMATTR InstName U1
SYMBOL cap -320 -32 R90
WINDOW 0 0 32 VBottom 2
WINDOW 3 32 32 VTop 2
SYMATTR InstName C5
SYMATTR Value 10µ
SYMBOL voltage -176 144 R90
WINDOW 123 0 0 Left 2
WINDOW 39 0 0 Left 2
SYMATTR InstName V4
SYMATTR Value -15
SYMBOL Opamps\\OP07 -128 -352 R0
SYMATTR InstName U2
SYMBOL res 16 -112 R90
WINDOW 0 0 56 VBottom 2
WINDOW 3 32 56 VTop 2
SYMATTR InstName R8
SYMATTR Value 35k
SYMBOL res -192 -320 R90
WINDOW 0 0 56 VBottom 2
WINDOW 3 32 56 VTop 2
SYMATTR InstName R11
SYMATTR Value 25k
SYMBOL res -688 -16 R0
SYMATTR InstName R12
SYMATTR Value 200k
SYMBOL res -320 16 R0
SYMATTR InstName R13
SYMATTR Value 200k
SYMBOL References\\LT6654-3.3 -656 -336 R0
WINDOW 3 38 -78 Left 2
SYMATTR InstName U3
SYMBOL res 16 -368 R90
WINDOW 0 0 56 VBottom 2
WINDOW 3 32 56 VTop 2
SYMATTR InstName R1
SYMATTR Value 50k
SYMBOL res 128 -272 R0
SYMATTR InstName R6
SYMATTR Value 50k
SYMBOL cap -96 -160 R90
WINDOW 0 0 32 VBottom 2
WINDOW 3 32 32 VTop 2
SYMATTR InstName C2
SYMATTR Value 22p
SYMBOL cap -16 -432 R90
WINDOW 0 0 32 VBottom 2
WINDOW 3 32 32 VTop 2
SYMATTR InstName C6
SYMATTR Value 22p
TEXT -936 304 Left 2 !;tran 0 0.6 0 0.0001
TEXT -936 272 Left 2 !.ac oct 16 0.1 300k
