Version 4
SHEET 1 1416 680
WIRE 352 32 288 32
WIRE 416 32 352 32
WIRE 288 64 288 32
WIRE 352 64 352 32
WIRE 416 64 416 32
WIRE -544 80 -736 80
WIRE -176 80 -368 80
WIRE -256 128 -272 128
WIRE -176 128 -176 80
WIRE -176 128 -192 128
WIRE -160 128 -176 128
WIRE -80 128 -96 128
WIRE -544 144 -544 80
WIRE -368 144 -368 80
WIRE -736 176 -736 80
WIRE -272 176 -272 128
WIRE -272 176 -304 176
WIRE -80 176 -80 128
WIRE -32 176 -80 176
WIRE 48 176 -32 176
WIRE 128 176 48 176
WIRE 208 176 128 176
WIRE 288 176 288 144
WIRE 288 176 208 176
WIRE 352 176 352 144
WIRE 352 176 288 176
WIRE 416 176 416 144
WIRE 448 176 416 176
WIRE 528 176 448 176
WIRE 608 176 528 176
WIRE 688 176 608 176
WIRE 768 176 688 176
WIRE 848 176 768 176
WIRE 848 192 848 176
WIRE -32 208 -32 176
WIRE 48 208 48 176
WIRE 128 208 128 176
WIRE 208 208 208 176
WIRE 288 208 288 176
WIRE 448 208 448 176
WIRE 528 208 528 176
WIRE 608 208 608 176
WIRE 688 208 688 176
WIRE 768 208 768 176
WIRE -272 224 -272 176
WIRE -256 224 -272 224
WIRE -176 224 -192 224
WIRE -160 224 -176 224
WIRE -80 224 -80 176
WIRE -80 224 -96 224
WIRE 352 224 352 176
WIRE -368 272 -368 224
WIRE -176 272 -176 224
WIRE -176 272 -368 272
WIRE -736 304 -736 256
WIRE -544 304 -544 224
WIRE -544 304 -736 304
WIRE -304 304 -304 176
WIRE -32 304 -32 272
WIRE -32 304 -304 304
WIRE 48 304 48 272
WIRE 48 304 -32 304
WIRE 128 304 128 272
WIRE 128 304 48 304
WIRE 208 304 208 272
WIRE 208 304 128 304
WIRE 288 304 288 272
WIRE 288 304 208 304
WIRE 352 304 288 304
WIRE 448 304 448 272
WIRE 448 304 352 304
WIRE 528 304 528 272
WIRE 528 304 448 304
WIRE 608 304 608 272
WIRE 608 304 528 304
WIRE 688 304 688 272
WIRE 688 304 608 304
WIRE 768 304 768 272
WIRE 768 304 688 304
WIRE 848 304 848 272
WIRE 848 304 768 304
WIRE -544 336 -544 304
WIRE -304 336 -304 304
FLAG -304 336 0
FLAG -544 336 0
SYMBOL voltage -736 160 R0
WINDOW 3 27 102 Left 2
WINDOW 123 24 44 Left 2
WINDOW 39 24 72 Left 2
SYMATTR Value SINE(0 170 60)
SYMATTR Value2 AC 1
SYMATTR SpiceLine Rser=0.0001
SYMATTR InstName V2
SYMBOL diode -256 144 R270
WINDOW 3 0 32 VBottom 2
WINDOW 0 32 32 VTop 2
SYMATTR Value MUR460
SYMATTR InstName D1
SYMBOL diode -160 144 R270
WINDOW 0 32 32 VTop 2
WINDOW 3 0 32 VBottom 2
SYMATTR InstName D2
SYMATTR Value MUR460
SYMBOL ind 400 48 R0
SYMATTR InstName L1
SYMATTR Value 390µ
SYMATTR SpiceLine Rser=72m
SYMBOL diode -256 240 R270
WINDOW 0 32 32 VTop 2
WINDOW 3 0 32 VBottom 2
SYMATTR InstName D3
SYMATTR Value MUR460
SYMBOL diode -160 240 R270
WINDOW 0 32 32 VTop 2
WINDOW 3 0 36 VBottom 2
SYMATTR InstName D4
SYMATTR Value MUR460
SYMBOL cap 592 208 R0
SYMATTR InstName C4
SYMATTR Value 4700µ
SYMATTR SpiceLine Rser=71m
SYMBOL res 304 160 R180
WINDOW 0 36 76 Left 2
WINDOW 3 36 40 Left 2
SYMATTR InstName R1_50W
SYMATTR Value 6
SYMBOL cap 112 208 R0
SYMATTR InstName C2
SYMATTR Value 15000µ
SYMATTR SpiceLine Rser=31m
SYMBOL cap 32 208 R0
SYMATTR InstName C1
SYMATTR Value 15000µ
SYMATTR SpiceLine Rser=31m
SYMBOL cap 672 208 R0
SYMATTR InstName C6
SYMATTR Value 4700µ
SYMATTR SpiceLine Rser=71m
SYMBOL cap 272 208 R0
SYMATTR InstName C5
SYMATTR Value 15000µ
SYMATTR SpiceLine Rser=31m
SYMBOL ind2 -560 240 M180
WINDOW 0 36 80 Left 2
WINDOW 3 36 40 Left 2
SYMATTR InstName L2
SYMATTR Value 2200µ
SYMATTR Type ind
SYMBOL ind2 -352 240 R180
WINDOW 0 36 80 Left 2
WINDOW 3 36 40 Left 2
SYMATTR InstName L3
SYMATTR Value 100µ
SYMATTR Type ind
SYMBOL res 832 176 R0
SYMATTR InstName R1
SYMATTR Value 100
SYMBOL cap 752 208 R0
SYMATTR InstName C7
SYMATTR Value 100n
SYMBOL cap -48 208 R0
SYMATTR InstName C8
SYMATTR Value 15000µ
SYMATTR SpiceLine Rser=31m
SYMBOL res 336 208 R0
SYMATTR InstName R2
SYMATTR Value 860
SYMBOL cap 432 208 R0
SYMATTR InstName C9
SYMATTR Value 4700µ
SYMATTR SpiceLine Rser=71m
SYMBOL cap 512 208 R0
SYMATTR InstName C10
SYMATTR Value 4700µ
SYMATTR SpiceLine Rser=71m
SYMBOL cap 192 208 R0
SYMATTR InstName C3
SYMATTR Value 15000µ
SYMATTR SpiceLine Rser=31m
SYMBOL res 368 160 R180
WINDOW 0 36 76 Left 2
WINDOW 3 36 40 Left 2
SYMATTR InstName R3
SYMATTR Value 6
TEXT -72 336 Left 2 !;ac oct 20 10 20k
TEXT 272 336 Left 2 !;ac oct 20 0.01 20k
TEXT -512 120 Left 2 !K1 L2 L3 1
TEXT 528 72 Left 2 !.tran 0 2 0.001 0.00002 startup
RECTANGLE Normal -320 320 -592 32 2
